@<TRIPOS>MOLECULE
CY3
   71    74     1     0     0
SMALL
bcc


@<TRIPOS>ATOM
      1 C1           3.5990     2.6310    -1.4450 ca         1 CY3      -0.159000
      2 C2           3.6460     1.3500    -1.9890 ca         1 CY3      -0.101000
      3 C3           2.5360     0.4930    -1.9110 ca         1 CY3      -0.161000
      4 C4           1.3620     0.9100    -1.2990 ca         1 CY3       0.048000
      5 C5           1.3550     2.1920    -0.7300 ca         1 CY3      -0.126000
      6 C6           2.4470     3.0580    -0.8000 ca         1 CY3      -0.082000
      7 C7          -0.0000     2.4680    -0.1040 c3         1 CY3       0.024000
      8 C8          -0.7540     1.1360    -0.3780 c2         1 CY3       0.052000
      9 C9          -2.0270     0.8570    -0.0020 c2         1 CY3      -0.224000
     10 C10         -2.9490     1.6860     0.7580 c2         1 CY3      -0.003000
     11 C11         -4.2600     1.3580     1.2980 c2         1 CY3      -0.279000
     12 C12         -5.1620     2.1840     1.8840 c2         1 CY3       0.073000
     13 N1          -6.4580     1.8170     2.3610 nh         1 CY3      -0.189000
     14 C13         -7.0980     2.9460     2.9070 ca         1 CY3       0.048000
     15 C14         -6.2800     4.0810     2.7980 ca         1 CY3      -0.125000
     16 C15         -4.9600     3.7020     2.1520 c3         1 CY3       0.034000
     17 C16         -4.7760     4.5410     0.8790 c3         1 CY3      -0.197000
     18 C17         -3.8530     3.9170     3.1940 c3         1 CY3      -0.197000
     19 C18         -6.6600     5.3380     3.2720 ca         1 CY3      -0.083000
     20 C19         -7.9080     5.4800     3.8640 ca         1 CY3      -0.162000
     21 C20         -8.7550     4.3770     3.9540 ca         1 CY3      -0.101000
     22 C21         -8.3530     3.1200     3.4730 ca         1 CY3      -0.162000
     23 C22         -6.8140     0.4350     2.7330 c3         1 CY3      -0.039000
     24 C23         -8.2790     0.0470     2.5920 c3         1 CY3      -0.230000
     25 C24         -8.7320     0.2870     1.1650 c3         1 CY3      -0.019000
     26 O1          -8.0190    -0.6810     0.4090 o          1 CY3      -0.366000
     27 N2           0.1280     0.2650    -1.0900 nh         1 CY3      -0.207000
     28 C25         -0.3520    -0.8440    -1.9370 c3         1 CY3      -0.029000
     29 C26          0.5840    -2.0330    -2.0960 c3         1 CY3      -0.196000
     30 C27          0.9300    -2.5920    -0.7300 c3         1 CY3       0.009000
     31 O5          -0.2930    -3.1440    -0.2640 os         1 CY3      -0.713000
     32 P2          -1.1870    -2.7410     0.9920 p3         1 CY3       2.439000
     33 O6          -2.4920    -3.4110     1.2220 o          1 CY3      -0.982500
     34 O8          -1.0450    -1.2510     1.5060 o          1 CY3      -0.982500
     35 C28         -0.6480     3.6180    -0.8850 c3         1 CY3      -0.199000
     36 C29          0.2010     2.7750     1.3880 c3         1 CY3      -0.199000
     37 H1           4.4600     3.2890    -1.5260 ha         1 CY3       0.134000
     38 H2           4.5560     1.0080    -2.4810 ha         1 CY3       0.133000
     39 H3           2.6820    -0.4870    -2.3310 ha         1 CY3       0.138000
     40 H4           2.4030     4.0540    -0.3720 ha         1 CY3       0.137000
     41 H5          -2.4280    -0.1230    -0.2500 ha         1 CY3       0.133000
     42 H6          -2.6130     2.6890     0.9490 ha         1 CY3       0.134000
     43 H7          -4.5360     0.3150     1.1600 ha         1 CY3       0.219000
     44 H8          -3.8580     4.3020     0.3410 hc         1 CY3       0.082667
     45 H9          -4.7320     5.6110     1.1110 hc         1 CY3       0.082667
     46 H10         -5.6090     4.3970     0.1780 hc         1 CY3       0.082667
     47 H11         -4.0420     3.3170     4.0940 hc         1 CY3       0.082667
     48 H12         -2.8670     3.6350     2.8230 hc         1 CY3       0.082667
     49 H13         -3.7930     4.9640     3.5070 hc         1 CY3       0.082667
     50 H14         -5.9950     6.1920     3.1960 ha         1 CY3       0.135000
     51 H15         -8.2250     6.4430     4.2530 ha         1 CY3       0.133000
     52 H16         -9.7400     4.4920     4.4020 ha         1 CY3       0.132000
     53 H17         -9.0900     2.3400     3.5570 ha         1 CY3       0.138000
     54 H18         -6.2810    -0.2520     2.0670 h1         1 CY3       0.107000
     55 H19         -6.4430     0.2020     3.7340 h1         1 CY3       0.107000
     56 H20         -8.3620    -1.0300     2.7950 hc         1 CY3       0.100500
     57 H21         -8.9210     0.5010     3.3430 hc         1 CY3       0.100500
     58 H22         -9.8100     0.0800     1.1000 h1         1 CY3       0.089500
     59 H23         -8.5900     1.3200     0.8240 h1         1 CY3       0.089500
     60 H26         -1.2560    -1.2620    -1.4810 h1         1 CY3       0.104500
     61 H27         -0.6750    -0.4670    -2.9110 h1         1 CY3       0.104500
     62 H28          0.0440    -2.8120    -2.6530 hc         1 CY3       0.108500
     63 H29          1.4490    -1.8220    -2.7210 hc         1 CY3       0.108500
     64 H30          1.6680    -3.3970    -0.8570 h1         1 CY3       0.096500
     65 H31          1.3810    -1.8570    -0.0530 h1         1 CY3       0.096500
     66 H34         -1.6470     3.8630    -0.5210 hc         1 CY3       0.085000
     67 H35         -0.0510     4.5340    -0.8250 hc         1 CY3       0.085000
     68 H36         -0.7470     3.3620    -1.9490 hc         1 CY3       0.085000
     69 H37          0.8160     3.6710     1.5300 hc         1 CY3       0.085000
     70 H38         -0.7370     2.9560     1.9150 hc         1 CY3       0.085000
     71 H39          0.7080     1.9490     1.9040 hc         1 CY3       0.085000
@<TRIPOS>BOND
     1     1     2 1   
     2     1     6 1   
     3     1    37 1   
     4     2     3 1   
     5     2    38 1   
     6     3     4 1   
     7     3    39 1   
     8     4     5 1   
     9     4    27 1   
    10     5     6 1   
    11     5     7 1   
    12     6    40 1   
    13     7     8 1   
    14     7    35 1   
    15     7    36 1   
    16     8     9 1   
    17     8    27 1   
    18     9    10 1   
    19     9    41 1   
    20    10    11 1   
    21    10    42 1   
    22    11    12 1   
    23    11    43 1   
    24    12    13 1   
    25    12    16 1   
    26    13    14 1   
    27    13    23 1   
    28    14    15 1   
    29    14    22 1   
    30    15    16 1   
    31    15    19 1   
    32    16    17 1   
    33    16    18 1   
    34    17    44 1   
    35    17    45 1   
    36    17    46 1   
    37    18    47 1   
    38    18    48 1   
    39    18    49 1   
    40    19    20 1   
    41    19    50 1   
    42    20    21 1   
    43    20    51 1   
    44    21    22 1   
    45    21    52 1   
    46    22    53 1   
    47    23    24 1   
    48    23    54 1   
    49    23    55 1   
    50    24    25 1   
    51    24    56 1   
    52    24    57 1   
    53    25    26 1   
    54    25    58 1   
    55    25    59 1   
    56    27    28 1   
    57    28    29 1   
    58    28    60 1   
    59    28    61 1   
    60    29    30 1   
    61    29    62 1   
    62    29    63 1   
    63    30    31 1   
    64    30    64 1   
    65    30    65 1   
    66    31    32 1   
    67    32    33 1   
    68    32    34 1   
    69    35    66 1   
    70    35    67 1   
    71    35    68 1   
    72    36    69 1   
    73    36    70 1   
    74    36    71 1   
@<TRIPOS>SUBSTRUCTURE
     1 CY3         1 TEMP              0 ****  ****    0 ROOT
