@<TRIPOS>MOLECULE
CY3
   80    83     1     0     0
SMALL
bcc


@<TRIPOS>ATOM
      1 C1           3.5990     2.6310    -1.4450 ca         1 CY3      -0.128000
      2 C2           3.6460     1.3500    -1.9890 ca         1 CY3      -0.097000
      3 C3           2.5360     0.4930    -1.9110 ca         1 CY3      -0.128000
      4 C4           1.3620     0.9100    -1.2990 ca         1 CY3       0.094600
      5 C5           1.3550     2.1920    -0.7300 ca         1 CY3      -0.128300
      6 C6           2.4470     3.0580    -0.8000 ca         1 CY3      -0.077000
      7 C7          -0.0000     2.4680    -0.1040 c3         1 CY3       0.011500
      8 C8          -0.7540     1.1360    -0.3780 c2         1 CY3       0.275800
      9 C9          -2.0270     0.8570    -0.0020 ce         1 CY3      -0.326000
     10 C10         -2.9490     1.6860     0.7580 ce         1 CY3       0.120000
     11 C11         -4.2600     1.3580     1.2980 cf         1 CY3      -0.412600
     12 C12         -5.1620     2.1840     1.8840 cf         1 CY3       0.414600
     13 N1          -6.4580     1.8170     2.3610 nh         1 CY3      -0.142200
     14 C13         -7.0980     2.9460     2.9070 ca         1 CY3      -0.032200
     15 C14         -6.2800     4.0810     2.7980 ca         1 CY3      -0.128300
     16 C15         -4.9600     3.7020     2.1520 c3         1 CY3      -0.068000
     17 C16         -4.7760     4.5410     0.8790 c3         1 CY3      -0.082100
     18 C17         -3.8530     3.9170     3.1940 c3         1 CY3      -0.082100
     19 C18         -6.6600     5.3380     3.2720 ca         1 CY3      -0.077000
     20 C19         -7.9080     5.4800     3.8640 ca         1 CY3      -0.128000
     21 C20         -8.7550     4.3770     3.9540 ca         1 CY3      -0.097000
     22 C21         -8.3530     3.1200     3.4730 ca         1 CY3      -0.128000
     23 C22         -6.8140     0.4350     2.7330 c3         1 CY3       0.022300
     24 C23         -8.2790     0.0470     2.5920 c3         1 CY3      -0.120400
     25 C24         -8.7320     0.2870     1.1650 c3         1 CY3       0.194400
     26 O1          -8.0190    -0.6810     0.4090 os         1 CY3      -0.577200
     27 P1          -6.9250    -0.4880    -0.7320 p5         1 CY3       1.683500
     28 O2          -6.2410    -1.6710    -1.3160 o          1 CY3      -0.822300
     29 O3          -7.9500     0.1720    -1.7900 oh         1 CY3      -0.787900
     30 O4          -6.1120     0.8700    -0.7050 oh         1 CY3      -0.787900
     31 N2           0.1280     0.2650    -1.0900 nh         1 CY3      -0.473800
     32 C25         -0.3520    -0.8440    -1.9370 c3         1 CY3       0.199800
     33 C26          0.5840    -2.0330    -2.0960 c3         1 CY3      -0.120400
     34 C27          0.9300    -2.5920    -0.7300 c3         1 CY3       0.194400
     35 O5          -0.2930    -3.1440    -0.2640 os         1 CY3      -0.577200
     36 P2          -1.1870    -2.7410     0.9920 p5         1 CY3       1.683500
     37 O6          -2.4920    -3.4110     1.2220 o          1 CY3      -0.822300
     38 O7          -0.0950    -3.2000     2.0870 oh         1 CY3      -0.787900
     39 O8          -1.0450    -1.2510     1.5060 oh         1 CY3      -0.787900
     40 C28         -0.6480     3.6180    -0.8850 c3         1 CY3      -0.082100
     41 C29          0.2010     2.7750     1.3880 c3         1 CY3      -0.082100
     42 H1           4.4600     3.2890    -1.5260 ha         1 CY3       0.152000
     43 H2           4.5560     1.0080    -2.4810 ha         1 CY3       0.151000
     44 H3           2.6820    -0.4870    -2.3310 ha         1 CY3       0.149000
     45 H4           2.4030     4.0540    -0.3720 ha         1 CY3       0.149000
     46 H5          -2.4280    -0.1230    -0.2500 ha         1 CY3       0.188000
     47 H6          -2.6130     2.6890     0.9490 ha         1 CY3       0.125000
     48 H7          -4.5360     0.3150     1.1600 ha         1 CY3       0.188000
     49 H8          -3.8580     4.3020     0.3410 hc         1 CY3       0.053033
     50 H9          -4.7320     5.6110     1.1110 hc         1 CY3       0.053033
     51 H10         -5.6090     4.3970     0.1780 hc         1 CY3       0.053033
     52 H11         -4.0420     3.3170     4.0940 hc         1 CY3       0.053033
     53 H12         -2.8670     3.6350     2.8230 hc         1 CY3       0.053033
     54 H13         -3.7930     4.9640     3.5070 hc         1 CY3       0.053033
     55 H14         -5.9950     6.1920     3.1960 ha         1 CY3       0.149000
     56 H15         -8.2250     6.4430     4.2530 ha         1 CY3       0.152000
     57 H16         -9.7400     4.4920     4.4020 ha         1 CY3       0.151000
     58 H17         -9.0900     2.3400     3.5570 ha         1 CY3       0.149000
     59 H18         -6.2810    -0.2520     2.0670 h1         1 CY3       0.098700
     60 H19         -6.4430     0.2020     3.7340 h1         1 CY3       0.098700
     61 H20         -8.3620    -1.0300     2.7950 hc         1 CY3       0.070700
     62 H21         -8.9210     0.5010     3.3430 hc         1 CY3       0.070700
     63 H22         -9.8100     0.0800     1.1000 h1         1 CY3       0.049200
     64 H23         -8.5900     1.3200     0.8240 h1         1 CY3       0.049200
     65 H24         -8.3780     0.9480    -1.3740 ho         1 CY3       0.496500
     66 H25         -6.0790     1.1700    -1.6370 ho         1 CY3       0.496500
     67 H26         -1.2560    -1.2620    -1.4810 h1         1 CY3       0.098700
     68 H27         -0.6750    -0.4670    -2.9110 h1         1 CY3       0.098700
     69 H28          0.0440    -2.8120    -2.6530 hc         1 CY3       0.070700
     70 H29          1.4490    -1.8220    -2.7210 hc         1 CY3       0.070700
     71 H30          1.6680    -3.3970    -0.8570 h1         1 CY3       0.049200
     72 H31          1.3810    -1.8570    -0.0530 h1         1 CY3       0.049200
     73 H32          0.7490    -2.7370     1.9080 ho         1 CY3       0.496500
     74 H33         -1.0000    -1.3180     2.4830 ho         1 CY3       0.496500
     75 H34         -1.6470     3.8630    -0.5210 hc         1 CY3       0.053033
     76 H35         -0.0510     4.5340    -0.8250 hc         1 CY3       0.053033
     77 H36         -0.7470     3.3620    -1.9490 hc         1 CY3       0.053033
     78 H37          0.8160     3.6710     1.5300 hc         1 CY3       0.053033
     79 H38         -0.7370     2.9560     1.9150 hc         1 CY3       0.053033
     80 H39          0.7080     1.9490     1.9040 hc         1 CY3       0.053033
@<TRIPOS>BOND
     1     1     2 ar  
     2     1     6 ar  
     3     1    42 1   
     4     2     3 ar  
     5     2    43 1   
     6     3     4 ar  
     7     3    44 1   
     8     4     5 ar  
     9     4    31 1   
    10     5     6 ar  
    11     5     7 1   
    12     6    45 1   
    13     7     8 1   
    14     7    40 1   
    15     7    41 1   
    16     8     9 2   
    17     8    31 1   
    18     9    10 1   
    19     9    46 1   
    20    10    11 2   
    21    10    47 1   
    22    11    12 1   
    23    11    48 1   
    24    12    13 2   
    25    12    16 1   
    26    13    14 1   
    27    13    23 1   
    28    14    15 ar  
    29    14    22 ar  
    30    15    16 1   
    31    15    19 ar  
    32    16    17 1   
    33    16    18 1   
    34    17    49 1   
    35    17    50 1   
    36    17    51 1   
    37    18    52 1   
    38    18    53 1   
    39    18    54 1   
    40    19    20 ar  
    41    19    55 1   
    42    20    21 ar  
    43    20    56 1   
    44    21    22 ar  
    45    21    57 1   
    46    22    58 1   
    47    23    24 1   
    48    23    59 1   
    49    23    60 1   
    50    24    25 1   
    51    24    61 1   
    52    24    62 1   
    53    25    26 1   
    54    25    63 1   
    55    25    64 1   
    56    26    27 1   
    57    27    28 2   
    58    27    29 1   
    59    27    30 1   
    60    29    65 1   
    61    30    66 1   
    62    31    32 1   
    63    32    33 1   
    64    32    67 1   
    65    32    68 1   
    66    33    34 1   
    67    33    69 1   
    68    33    70 1   
    69    34    35 1   
    70    34    71 1   
    71    34    72 1   
    72    35    36 1   
    73    36    37 2   
    74    36    38 1   
    75    36    39 1   
    76    38    73 1   
    77    39    74 1   
    78    40    75 1   
    79    40    76 1   
    80    40    77 1   
    81    41    78 1   
    82    41    79 1   
    83    41    80 1   
@<TRIPOS>SUBSTRUCTURE
     1 CY3         1 TEMP              0 ****  ****    0 ROOT
