@<TRIPOS>MOLECULE
CY5
   75    78     1     0     0
SMALL
bcc


@<TRIPOS>ATOM
      1 C1           2.2140    -0.4770    -5.5950 ca         1 CY5      -0.161000
      2 C2           2.5290    -1.3910    -4.5780 ca         1 CY5      -0.099000
      3 C3           1.6160    -1.6780    -3.5430 ca         1 CY5      -0.159000
      4 C4           0.3890    -1.0350    -3.5560 ca         1 CY5       0.051000
      5 C5           0.0900    -0.1260    -4.5750 ca         1 CY5      -0.128000
      6 C6           0.9830     0.1680    -5.5970 ca         1 CY5      -0.082000
      7 C7          -1.2990     0.4160    -4.3680 c3         1 CY5       0.020000
      8 C8          -1.6920    -0.3340    -3.0950 c2         1 CY5       0.057000
      9 C9          -3.0040    -0.2250    -2.3800 c2         1 CY5      -0.235000
     10 C10         -4.0570     0.5280    -2.7120 c2         1 CY5      -0.024000
     11 C11         -5.2810     0.4880    -1.9390 c2         1 CY5      -0.203000
     12 C12         -6.4560     1.2770    -2.2500 c2         1 CY5       0.044000
     13 C13         -7.5580     1.2020    -1.4990 c2         1 CY5      -0.299000
     14 C14         -8.8300     1.9780    -1.6570 c2         1 CY5       0.191000
     15 N1          -9.8520     1.8410    -0.8610 nh         1 CY5      -0.080000
     16 C15        -10.9100     2.6990    -1.2230 ca         1 CY5      -0.004000
     17 C16        -10.5120     3.4280    -2.3480 ca         1 CY5      -0.108000
     18 C17         -9.1150     3.0240    -2.7350 c3         1 CY5      -0.012000
     19 C18         -9.1200     2.4030    -4.1320 c3         1 CY5      -0.199500
     20 C19         -8.1770     4.2200    -2.5890 c3         1 CY5      -0.199500
     21 C20        -11.3310     4.3750    -2.9500 ca         1 CY5      -0.086000
     22 C21        -12.5870     4.5980    -2.3990 ca         1 CY5      -0.124000
     23 C22        -13.0010     3.8730    -1.2710 ca         1 CY5      -0.109000
     24 C23        -12.1630     2.9120    -0.6720 ca         1 CY5      -0.104000
     25 C24         -9.7770     0.8280     0.1850 c3         1 CY5      -0.045000
     26 C25        -10.8780     0.4390     1.0900 c3         1 CY5      -0.249000
     27 C26        -10.3780    -0.8490     1.8240 c3         1 CY5       0.137000
     28 O1          -9.4310    -1.7510     1.0810 o          1 CY5      -0.767000
     29 N2          -0.7250    -1.1100    -2.6960 nh         1 CY5      -0.192000
     30 C27         -0.9060    -1.8480    -1.4510 c3         1 CY5      -0.033000
     31 C28          0.1230    -2.6660    -0.7750 c3         1 CY5      -0.197000
     32 C29         -0.4760    -3.0120     0.6280 c3         1 CY5       0.022000
     33 O5          -1.4170    -2.0160     1.2480 os         1 CY5      -0.729000
     34 P2          -2.3890    -2.3500     2.5640 p3         1 CY5       2.490000
     35 O6          -3.5900    -3.2140     2.4090 o          1 CY5      -0.990000
     36 O8          -1.8300    -1.9920     4.0160 o          1 CY5      -0.990000
     37 C30         -2.1900     0.0020    -5.5360 c3         1 CY5      -0.197000
     38 C31         -1.2400     1.9260    -4.1340 c3         1 CY5      -0.197000
     39 H1           2.9300    -0.2730    -6.3910 ha         1 CY5       0.133000
     40 H2           3.5020    -1.8840    -4.6080 ha         1 CY5       0.133000
     41 H3           1.9190    -2.4000    -2.7950 ha         1 CY5       0.139000
     42 H4           0.7330     0.8740    -6.3860 ha         1 CY5       0.134000
     43 H5          -3.1360    -0.8400    -1.4900 ha         1 CY5       0.169000
     44 H6          -4.0530     1.1840    -3.5720 ha         1 CY5       0.117000
     45 H7          -5.3210    -0.1740    -1.0720 ha         1 CY5       0.181000
     46 H8          -6.3800     1.9320    -3.1080 ha         1 CY5       0.108000
     47 H9          -7.5060     0.5010    -0.6660 ha         1 CY5       0.283000
     48 H10         -9.4320     3.1300    -4.8890 hc         1 CY5       0.094500
     49 H11         -8.1360     2.0290    -4.4230 hc         1 CY5       0.094500
     50 H12         -9.8120     1.5520    -4.1880 hc         1 CY5       0.094500
     51 H13         -8.2100     4.6220    -1.5680 hc         1 CY5       0.094500
     52 H14         -7.1370     3.9570    -2.7930 hc         1 CY5       0.094500
     53 H15         -8.4520     5.0280    -3.2730 hc         1 CY5       0.094500
     54 H16        -11.0040     4.9380    -3.8220 ha         1 CY5       0.146000
     55 H17        -13.2460     5.3430    -2.8460 ha         1 CY5       0.145000
     56 H18        -13.9910     4.0750    -0.8610 ha         1 CY5       0.147000
     57 H19        -12.5410     2.3950     0.2020 ha         1 CY5       0.158000
     58 H20         -9.5540    -0.0760    -0.3870 h1         1 CY5       0.124000
     59 H21         -8.9250     1.1010     0.8200 h1         1 CY5       0.124000
     60 H22        -11.1190     1.2330     1.8140 hc         1 CY5       0.074000
     61 H23        -11.8080     0.2270     0.5510 hc         1 CY5       0.074000
     62 H24        -11.3030    -1.4070     2.0030 h1         1 CY5      -0.032000
     63 H25         -9.9380    -0.5490     2.7850 h1         1 CY5      -0.032000
     64 H28         -1.1350    -1.0480    -0.7420 h1         1 CY5       0.106000
     65 H29         -1.7800    -2.4930    -1.5980 h1         1 CY5       0.106000
     66 H30          0.3560    -3.5840    -1.3380 hc         1 CY5       0.105000
     67 H31          1.0720    -2.1320    -0.6580 hc         1 CY5       0.105000
     68 H32          0.4110    -3.0780     1.2660 h1         1 CY5       0.091000
     69 H33         -0.9580    -3.9970     0.5640 h1         1 CY5       0.091000
     70 H36         -3.2270     0.3130    -5.3960 hc         1 CY5       0.082667
     71 H37         -1.8390     0.4350    -6.4780 hc         1 CY5       0.082667
     72 H38         -2.1990    -1.0900    -5.6560 hc         1 CY5       0.082667
     73 H39         -0.8530     2.4500    -5.0130 hc         1 CY5       0.082667
     74 H40         -2.2210     2.3490    -3.9060 hc         1 CY5       0.082667
     75 H41         -0.5840     2.1740    -3.2880 hc         1 CY5       0.082667
@<TRIPOS>BOND
     1     1     2 1   
     2     1     6 1   
     3     1    39 1   
     4     2     3 1   
     5     2    40 1   
     6     3     4 1   
     7     3    41 1   
     8     4     5 1   
     9     4    29 1   
    10     5     6 1   
    11     5     7 1   
    12     6    42 1   
    13     7     8 1   
    14     7    37 1   
    15     7    38 1   
    16     8     9 1   
    17     8    29 1   
    18     9    10 1   
    19     9    43 1   
    20    10    11 1   
    21    10    44 1   
    22    11    12 1   
    23    11    45 1   
    24    12    13 1   
    25    12    46 1   
    26    13    14 1   
    27    13    47 1   
    28    14    15 1   
    29    14    18 1   
    30    15    16 1   
    31    15    25 1   
    32    16    17 1   
    33    16    24 1   
    34    17    18 1   
    35    17    21 1   
    36    18    19 1   
    37    18    20 1   
    38    19    48 1   
    39    19    49 1   
    40    19    50 1   
    41    20    51 1   
    42    20    52 1   
    43    20    53 1   
    44    21    22 1   
    45    21    54 1   
    46    22    23 1   
    47    22    55 1   
    48    23    24 1   
    49    23    56 1   
    50    24    57 1   
    51    25    26 1   
    52    25    58 1   
    53    25    59 1   
    54    26    27 1   
    55    26    60 1   
    56    26    61 1   
    57    27    28 1   
    58    27    62 1   
    59    27    63 1   
    60    29    30 1   
    61    30    31 1   
    62    30    64 1   
    63    30    65 1   
    64    31    32 1   
    65    31    66 1   
    66    31    67 1   
    67    32    33 1   
    68    32    68 1   
    69    32    69 1   
    70    33    34 1   
    71    34    35 1   
    72    34    36 1   
    73    37    70 1   
    74    37    71 1   
    75    37    72 1   
    76    38    73 1   
    77    38    74 1   
    78    38    75 1   
@<TRIPOS>SUBSTRUCTURE
     1 CY5         1 TEMP              0 ****  ****    0 ROOT
