@<TRIPOS>MOLECULE
CY5
   84    87     1     0     0
SMALL
bcc


@<TRIPOS>ATOM
      1 C1           2.2140    -0.4770    -5.5950 ca         1 CY5      -0.126000
      2 C2           2.5290    -1.3910    -4.5780 ca         1 CY5      -0.097000
      3 C3           1.6160    -1.6780    -3.5430 ca         1 CY5      -0.124000
      4 C4           0.3890    -1.0350    -3.5560 ca         1 CY5       0.095600
      5 C5           0.0900    -0.1260    -4.5750 ca         1 CY5      -0.127300
      6 C6           0.9830     0.1680    -5.5970 ca         1 CY5      -0.078000
      7 C7          -1.2990     0.4160    -4.3680 c3         1 CY5       0.015500
      8 C8          -1.6920    -0.3340    -3.0950 c2         1 CY5       0.267800
      9 C9          -3.0040    -0.2250    -2.3800 ce         1 CY5      -0.327000
     10 C10         -4.0570     0.5280    -2.7120 ce         1 CY5       0.099000
     11 C11         -5.2810     0.4880    -1.9390 cf         1 CY5      -0.300000
     12 C12         -6.4560     1.2770    -2.2500 cf         1 CY5       0.099000
     13 C13         -7.5580     1.2020    -1.4990 ce         1 CY5      -0.413600
     14 C14         -8.8300     1.9780    -1.6570 ce         1 CY5       0.406600
     15 N1          -9.8520     1.8410    -0.8610 nh         1 CY5      -0.145200
     16 C15        -10.9100     2.6990    -1.2230 ca         1 CY5      -0.031200
     17 C16        -10.5120     3.4280    -2.3480 ca         1 CY5      -0.127300
     18 C17         -9.1150     3.0240    -2.7350 c3         1 CY5      -0.064000
     19 C18         -9.1200     2.4030    -4.1320 c3         1 CY5      -0.084100
     20 C19         -8.1770     4.2200    -2.5890 c3         1 CY5      -0.084100
     21 C20        -11.3310     4.3750    -2.9500 ca         1 CY5      -0.078000
     22 C21        -12.5870     4.5980    -2.3990 ca         1 CY5      -0.126000
     23 C22        -13.0010     3.8730    -1.2710 ca         1 CY5      -0.097000
     24 C23        -12.1630     2.9120    -0.6720 ca         1 CY5      -0.124000
     25 C24         -9.7770     0.8280     0.1850 c3         1 CY5       0.016300
     26 C25        -10.8780     0.4390     1.0900 c3         1 CY5      -0.122400
     27 C26        -10.3780    -0.8490     1.8240 c3         1 CY5       0.182400
     28 O1          -9.4310    -1.7510     1.0810 os         1 CY5      -0.581200
     29 P1          -8.5540    -2.9740     1.8030 p5         1 CY5       1.647500
     30 O2          -7.3850    -2.6510     2.6650 o          1 CY5      -0.821300
     31 O3          -9.7630    -2.9190     2.9310 oh         1 CY5      -0.762900
     32 O4          -9.1800    -4.4420     1.8050 oh         1 CY5      -0.762900
     33 N2          -0.7250    -1.1100    -2.6960 nh         1 CY5      -0.476800
     34 C27         -0.9060    -1.8480    -1.4510 c3         1 CY5       0.193800
     35 C28          0.1230    -2.6660    -0.7750 c3         1 CY5      -0.122400
     36 C29         -0.4760    -3.0120     0.6280 c3         1 CY5       0.182400
     37 O5          -1.4170    -2.0160     1.2480 os         1 CY5      -0.581200
     38 P2          -2.3890    -2.3500     2.5640 p5         1 CY5       1.647500
     39 O6          -3.5900    -3.2140     2.4090 o          1 CY5      -0.821300
     40 O7          -1.2460    -3.5050     2.8760 oh         1 CY5      -0.762900
     41 O8          -1.8300    -1.9920     4.0160 oh         1 CY5      -0.762900
     42 C30         -2.1900     0.0020    -5.5360 c3         1 CY5      -0.084100
     43 C31         -1.2400     1.9260    -4.1340 c3         1 CY5      -0.084100
     44 H1           2.9300    -0.2730    -6.3910 ha         1 CY5       0.152000
     45 H2           3.5020    -1.8840    -4.6080 ha         1 CY5       0.152000
     46 H3           1.9190    -2.4000    -2.7950 ha         1 CY5       0.152000
     47 H4           0.7330     0.8740    -6.3860 ha         1 CY5       0.149000
     48 H5          -3.1360    -0.8400    -1.4900 ha         1 CY5       0.159000
     49 H6          -4.0530     1.1840    -3.5720 ha         1 CY5       0.124000
     50 H7          -5.3210    -0.1740    -1.0720 ha         1 CY5       0.155000
     51 H8          -6.3800     1.9320    -3.1080 ha         1 CY5       0.124000
     52 H9          -7.5060     0.5010    -0.6660 ha         1 CY5       0.159000
     53 H10         -9.4320     3.1300    -4.8890 hc         1 CY5       0.054200
     54 H11         -8.1360     2.0290    -4.4230 hc         1 CY5       0.054200
     55 H12         -9.8120     1.5520    -4.1880 hc         1 CY5       0.054200
     56 H13         -8.2100     4.6220    -1.5680 hc         1 CY5       0.054200
     57 H14         -7.1370     3.9570    -2.7930 hc         1 CY5       0.054200
     58 H15         -8.4520     5.0280    -3.2730 hc         1 CY5       0.054200
     59 H16        -11.0040     4.9380    -3.8220 ha         1 CY5       0.149000
     60 H17        -13.2460     5.3430    -2.8460 ha         1 CY5       0.152000
     61 H18        -13.9910     4.0750    -0.8610 ha         1 CY5       0.152000
     62 H19        -12.5410     2.3950     0.2020 ha         1 CY5       0.152000
     63 H20         -9.5540    -0.0760    -0.3870 h1         1 CY5       0.089700
     64 H21         -8.9250     1.1010     0.8200 h1         1 CY5       0.089700
     65 H22        -11.1190     1.2330     1.8140 hc         1 CY5       0.070700
     66 H23        -11.8080     0.2270     0.5510 hc         1 CY5       0.070700
     67 H24        -11.3030    -1.4070     2.0030 h1         1 CY5       0.057200
     68 H25         -9.9380    -0.5490     2.7850 h1         1 CY5       0.057200
     69 H26        -10.5680    -3.1220     2.3990 ho         1 CY5       0.497500
     70 H27         -9.4070    -4.5660     2.7690 ho         1 CY5       0.497500
     71 H28         -1.1350    -1.0480    -0.7420 h1         1 CY5       0.089700
     72 H29         -1.7800    -2.4930    -1.5980 h1         1 CY5       0.089700
     73 H30          0.3560    -3.5840    -1.3380 hc         1 CY5       0.070700
     74 H31          1.0720    -2.1320    -0.6580 hc         1 CY5       0.070700
     75 H32          0.4110    -3.0780     1.2660 h1         1 CY5       0.057200
     76 H33         -0.9580    -3.9970     0.5640 h1         1 CY5       0.057200
     77 H34         -0.4210    -2.9740     2.9790 ho         1 CY5       0.497500
     78 H35         -1.6640    -2.8990     4.4000 ho         1 CY5       0.497500
     79 H36         -3.2270     0.3130    -5.3960 hc         1 CY5       0.054200
     80 H37         -1.8390     0.4350    -6.4780 hc         1 CY5       0.054200
     81 H38         -2.1990    -1.0900    -5.6560 hc         1 CY5       0.054200
     82 H39         -0.8530     2.4500    -5.0130 hc         1 CY5       0.054200
     83 H40         -2.2210     2.3490    -3.9060 hc         1 CY5       0.054200
     84 H41         -0.5840     2.1740    -3.2880 hc         1 CY5       0.054200
@<TRIPOS>BOND
     1     1     2 ar  
     2     1     6 ar  
     3     1    44 1   
     4     2     3 ar  
     5     2    45 1   
     6     3     4 ar  
     7     3    46 1   
     8     4     5 ar  
     9     4    33 1   
    10     5     6 ar  
    11     5     7 1   
    12     6    47 1   
    13     7     8 1   
    14     7    42 1   
    15     7    43 1   
    16     8     9 2   
    17     8    33 1   
    18     9    10 1   
    19     9    48 1   
    20    10    11 2   
    21    10    49 1   
    22    11    12 1   
    23    11    50 1   
    24    12    13 2   
    25    12    51 1   
    26    13    14 1   
    27    13    52 1   
    28    14    15 2   
    29    14    18 1   
    30    15    16 1   
    31    15    25 1   
    32    16    17 ar  
    33    16    24 ar  
    34    17    18 1   
    35    17    21 ar  
    36    18    19 1   
    37    18    20 1   
    38    19    53 1   
    39    19    54 1   
    40    19    55 1   
    41    20    56 1   
    42    20    57 1   
    43    20    58 1   
    44    21    22 ar  
    45    21    59 1   
    46    22    23 ar  
    47    22    60 1   
    48    23    24 ar  
    49    23    61 1   
    50    24    62 1   
    51    25    26 1   
    52    25    63 1   
    53    25    64 1   
    54    26    27 1   
    55    26    65 1   
    56    26    66 1   
    57    27    28 1   
    58    27    67 1   
    59    27    68 1   
    60    28    29 1   
    61    29    30 2   
    62    29    31 1   
    63    29    32 1   
    64    31    69 1   
    65    32    70 1   
    66    33    34 1   
    67    34    35 1   
    68    34    71 1   
    69    34    72 1   
    70    35    36 1   
    71    35    73 1   
    72    35    74 1   
    73    36    37 1   
    74    36    75 1   
    75    36    76 1   
    76    37    38 1   
    77    38    39 2   
    78    38    40 1   
    79    38    41 1   
    80    40    77 1   
    81    41    78 1   
    82    42    79 1   
    83    42    80 1   
    84    42    81 1   
    85    43    82 1   
    86    43    83 1   
    87    43    84 1   
@<TRIPOS>SUBSTRUCTURE
     1 CY5         1 TEMP              0 ****  ****    0 ROOT
